<configuration>
    <input>
        <net-file value="map.net.xml"/>
        <route-files value="traffic.rou.xml"/>
        <additional-files value="traffic_sensors.add.xml"/>
    </input>
    <time>
        <begin value="0"/>
        <end value="3600"/>
    </time>
    <output>
        <tripinfo-output value="tripinfo.xml"/>
        <summary-output value="summary.xml"/>
        <queue-output value="queue.xml"/>
    </output>
</configuration>