<?xml version="1.0" encoding="UTF-8"?>

<!-- generated on 2025-12-12T16:09:59.292777+05:30 by Eclipse SUMO jtrrouter 1.25.0
<jtrrouterConfiguration xmlns:xsi="http://www.w3.org/2001/XMLSchema-instance" xsi:noNamespaceSchemaLocation="http://sumo.dlr.de/xsd/jtrrouterConfiguration.xsd">

    <input>
        <net-file value="map.net.xml"/>
        <route-files value="flows.xml"/>
        <turn-ratio-files value="turns.xml"/>
    </input>

    <output>
        <output-file value="traffic.rou.xml"/>
    </output>

    <processing>
        <accept-all-destinations value="true"/>
    </processing>

    <time>
        <begin value="0"/>
        <end value="3600"/>
    </time>

    <random_number>
        <seed value="42"/>
    </random_number>

</jtrrouterConfiguration>
-->

<routes xmlns:xsi="http://www.w3.org/2001/XMLSchema-instance" xsi:noNamespaceSchemaLocation="http://sumo.dlr.de/xsd/routes_file.xsd">
    <vType id="car" length="5.00" minGap="2.50" maxSpeed="55.55" accel="2.6" decel="4.5" sigma="0.5"/>
    <vehicle id="flow_1025551194_EB.0" type="car" depart="0.00">
        <route edges="88289922#6 88289922#7 88289922#8 -88289922#8 -88289922#7 -88289922#6 -88289922#5 -88289922#4 -88290007#1 -88290007#0 88290007#0 88290007#1 88289922#4 88289922#5"/>
    </vehicle>
    <vehicle id="flow_1025551194_SB.0" type="car" depart="0.00">
        <route edges="-88291250#0 88289922#7 88289922#8 189663799 -189663799 -88289922#8 -88289922#7 -88289922#6 -88289922#5 -88289922#4 88289922#4 88289922#5 88289922#6 88291250#0 88291250#1 141624560#0 141624560#1 141624560#2 -773828749 773828749 141624560#3 141624560#4 896870299 896870295 896870298 218899451#1 218899451#2 218899451#3 218899451#4 218899451#5 218899451#6 218899451#7 -218899451#7 -218899451#6 -218899451#5 -218899451#4 -218899451#3 -218899451#2 -218899451#1 -896870298 -896870295 -896870299 -141624560#4 -141624560#3 -141624560#2 -141624560#1 -141624560#0 -88291250#1"/>
    </vehicle>
    <vehicle id="flow_1025551194_WB.0" type="car" depart="0.00">
        <route edges="-88289922#7 -88289922#6 -88289922#5 -88289922#4 -88289922#3 88290893#0 88290893#1 -88290893#1 -88290893#0 88289922#3 88289922#4 88289922#5 88289922#6 88289922#7 88289922#8 1017920809#0 1017920809#1"/>
    </vehicle>
    <vehicle id="flow_1025551194_WB.1" type="car" depart="21.69">
        <route edges="-88289922#7 -88289922#6 -88289922#5 -88289922#4 -88290007#1 -88290007#0 88290007#0 88290007#1 -88289922#3 88290893#0 88290893#1 -88290893#1 -88290893#0 -88289922#2 -88290007#8 -95475018 95475018 88290007#8 88290007#9 88290007#10 88290007#11 -88290007#11 -88290007#10 -88290007#9 88289922#2 88289922#3 88290007#2 88290007#3 88290007#4 -88290007#4 88291004 -88291004 -88290007#3 -88290007#2 88289922#4 88289922#5 88289922#6 88289922#7 88289922#8 1017920809#0 1017920809#1"/>
    </vehicle>
    <vehicle id="flow_1025551194_EB.1" type="car" depart="29.27">
        <route edges="88289922#6 88289922#7 88289922#8 189663799 -189663799 1017920809#0 1017920809#1"/>
    </vehicle>
    <vehicle id="flow_1025551194_WB.2" type="car" depart="43.37">
        <route edges="-88289922#7 -88289922#6 -88289922#5 -88289922#4 -88290007#1 -88290007#0 88290007#0 88290007#1 88290007#2 88290007#3 88291004 -88291004 88290007#4 -88290893#1 -88290893#0 -88289922#2 -88290007#8 88290007#8 88290007#9 88290007#10 88290696 -88290696 -88290007#10 -88290007#9 88289922#2 88290893#0 88290893#1 88290007#5 -88291002#0 88291002#0 88290007#6 88290007#7 -88290007#7 -88290007#6 88291002#1 -88291002#1 -88290007#5 -88290007#4 -88290007#3 -88290007#2 88289922#4 88289922#5 88289922#6 88289922#7 88289922#8 1017920809#0 1017920809#1"/>
    </vehicle>
    <vehicle id="flow_1025551194_SB.1" type="car" depart="43.90">
        <route edges="-88291250#0 -88289922#6 -88289922#5 -88289922#4 -88290007#1 -88290007#0 88290007#0 88290007#1 88290007#2 88290007#3 88290007#4 88290007#5 88290007#6 88290007#7 -88290007#7 -88290007#6 88291002#1 -88291002#1 -88290007#5 -88290007#4 -88290007#3 -88290007#2 -88289922#3 -88289922#2 -88290007#8 -95475018 95475018 88290007#8 -88289922#1 -88289922#0 88289922#0 88289922#1 88290007#9 88290007#10 -88290007#10 -88290007#9 88289922#2 88289922#3 88289922#4 88289922#5 88289922#6 88291250#0 88291250#1 141624560#0 141624560#1 141624560#2 141624560#3 141624560#4 896870299 896870295 -896870295 -896870299 -141624560#4 -141624560#3 -773828749 773828749 -141624560#2 -141624560#1 -141624560#0 -88291250#1"/>
    </vehicle>
    <vehicle id="flow_1025551194_EB.2" type="car" depart="58.54">
        <route edges="88289922#6 88289922#7 88289922#8 1017920809#0 1017920809#1"/>
    </vehicle>
    <vehicle id="flow_1025551194_WB.3" type="car" depart="65.06">
        <route edges="-88289922#7 -88289922#6 -88289922#5 -88289922#4 88290007#2 88290007#3 -88290007#3 -88290007#2 -88290007#1 -88290007#0 88290007#0 88290007#1 -88289922#3 -88289922#2 -88289922#1 -88289922#0 88289922#0 88289922#1 88290007#9 88290007#10 88290696 -88290696 88290007#11 -88290007#11 -88290007#10 -88290007#9 88289922#2 88289922#3 88289922#4 88289922#5 88289922#6 88289922#7 88289922#8 189663799 95474932#0 95474932#1 95474932#2 -189512167#1 -189512167#0 -1157687719#1 -1157687719#0 1157687719#0 1157687719#1 189512167#0 189512167#1 189512167#2 599496410#1 372292804 773828749 141624560#3 141624560#4 896870299 896870295 896870298 218899451#1 218899451#2 218899451#3 218899451#4 189666893#0 189666893#1 218899450 218899454 -189512167#2 599496409#0 88293117"/>
    </vehicle>
    <vehicle id="flow_1025551194_WB.4" type="car" depart="86.74">
        <route edges="-88289922#7 -88289922#6 -88289922#5 -88289922#4 -88289922#3 -88289922#2 88289922#2 88290893#0 88290893#1 88290007#5 88291002#1 -88291002#1 -88291002#0 88291002#0 88290007#6 88290007#7 -95475018 95475018 -88290007#7 -88290007#6 -88290007#5 -88290007#4 -88290007#3 -88290007#2 88289922#4 88289922#5 88289922#6 88289922#7 88289922#8 -88289922#8"/>
    </vehicle>
    <vehicle id="flow_1025551194_EB.3" type="car" depart="87.80">
        <route edges="88289922#6 88289922#7 88289922#8 189663799 -189663799 -88289922#8 -88289922#7 88291250#0 88291250#1 88291250#2 88291250#3 88291120 218652276 218652292 218652304#0 218652304#1 218652287#0 100574869#1 100574869#2 100574869#3 100574869#4 100574869#5 238694432#0 238694432#1 238694432#2 238694432#3 400916783#0 400916783#1 218652290#1 218652269"/>
    </vehicle>
    <vehicle id="flow_1025551194_SB.2" type="car" depart="87.80">
        <route edges="-88291250#0 88289922#7 88289922#8 189663799 -189663799 1017920809#0 1017920809#1"/>
    </vehicle>
    <vehicle id="flow_1025551194_WB.5" type="car" depart="108.43">
        <route edges="-88289922#7 -88289922#6 -88289922#5 -88289922#4 88290007#2 88290007#3 -88290007#3 -88290007#2 88289922#4 88289922#5 88289922#6 88289922#7 88289922#8 1017920809#0 1017920809#1"/>
    </vehicle>
    <vehicle id="flow_1025551194_EB.4" type="car" depart="117.07">
        <route edges="88289922#6 88291250#0 88291250#1 88291250#2 88291250#3 88291120 218652276 218652292 218652304#0 218652304#1 218652287#0 100574869#1 100574869#2 100574869#3 100574869#4 100574869#5 238694432#0 238694432#1 238694432#2 238694432#3 238694432#4 218652299#2 218652299#3 218652286 218652277"/>
    </vehicle>
    <vehicle id="flow_1025551194_WB.6" type="car" depart="130.12">
        <route edges="-88289922#7 -88289922#6 -88289922#5 -88289922#4 -88290007#1 -88290007#0 88290007#0 88290007#1 88289922#4 88289922#5 88289922#6 88289922#7 88289922#8 189663799 95474932#0 95474932#1 95474932#2 189512167#2 599496410#1 599496410#2 599496410#3 -88289922#8"/>
    </vehicle>
    <vehicle id="flow_1025551194_SB.3" type="car" depart="131.71">
        <route edges="-88291250#0 -88289922#6 -88289922#5 -88289922#4 -88289922#3 -88289922#2 -88289922#1 -88289922#0 88289922#0 88289922#1 88290007#9 88290007#10 88290007#11 -88290007#11 -88290007#10 -88290007#9 88289922#2 88290893#0 88290893#1 88290007#5 -88291002#0 88291002#0 88290007#6 88290007#7 88290007#8 -88290007#8 -95475018 95475018 -88290007#7 -88290007#6 88291002#1 -88291002#1 -88290007#5 -88290893#1 -88290893#0 88289922#3 88290007#2 88290007#3 88290007#4 -88290007#4 88291004 -88291004 -88290007#3 -88290007#2 -88290007#1 -88290007#0 88290007#0 88290007#1 88289922#4 88289922#5 88289922#6 88289922#7 88289922#8 189663799 95474932#0 95474932#1 95474932#2 -189512167#1 -189512167#0 1157687719#2 1157687719#3 218899446#3 -218899446#3 -1157687719#3 -1157687719#2 -1157687719#1 -1157687719#0 1157687719#0 1157687719#1 189512167#0 189512167#1 599496409#0 599496409#1 599496409#2 218652254#0 218652330#0 218652330#1 218652299#3 218652286 218652277"/>
    </vehicle>
    <vehicle id="flow_1025551194_EB.5" type="car" depart="146.34">
        <route edges="88289922#6 88291250#0 88291250#1 141624560#0 141624560#1 141624560#2 141624560#3 141624560#4 896870299 896870295 896870298 218899451#1 218899451#2 218899451#3 218899451#4 218899451#5 218899451#6 218899451#7 -218899451#7 -218899451#6 -218899451#5 -218899451#4 -218899451#3 -218899451#2 -218899451#1 -896870298 -218899452 218899453 599496410#1 372292804 773828749 -141624560#2 -141624560#1 -141624560#0 -88291250#1 -88291250#0 88289922#7 88289922#8 189663799 -189663799 -88289922#8 -88289922#7 -88289922#6 -88289922#5 -88289922#4 -88289922#3 88289922#3 -88290007#1 -88290007#0 88290007#0 88290007#1 88289922#4 88289922#5"/>
    </vehicle>
    <vehicle id="flow_1025551194_WB.7" type="car" depart="151.80">
        <route edges="-88289922#7 -88289922#6 -88289922#5 -88289922#4 -88290007#1 -88290007#0 88290007#0 88290007#1 -88289922#3 -88289922#2 88290007#9 88290007#10 -88290007#10 -88290007#9 -88290007#8 -88290007#7 -88290007#6 88291002#1 -88291002#1 -88291002#0 88291002#0 88290007#6 88290007#7 -95475018 95475018 88290007#8 88289922#2 88290893#0 88290893#1 88290007#5 -88290007#5 88290893#2 -88290893#2 -88290893#1 -88290893#0 88289922#3 88290007#2 88290007#3 88290007#4 -88290007#4 -88290007#3 -88290007#2 88289922#4 88289922#5 88289922#6 88289922#7 88289922#8 -88289922#8"/>
    </vehicle>
    <vehicle id="flow_1025551194_WB.8" type="car" depart="173.49">
        <route edges="-88289922#7 -88289922#6 -88289922#5 -88289922#4 -88290007#1 -88290007#0 88290007#0 88290007#1 88290007#2 88290007#3 88290007#4 -88290893#1 -88290893#0 88289922#3 88289922#4 88289922#5 88289922#6 88289922#7 88289922#8 189663799 95474932#0 95474932#1 95474932#2 -189512167#1 -189512167#0 1157687719#2 1157687719#3 218899446#3 -218670467#2 -218670467#1 -88293081 88293081 -218670467#0 218670467#0 218670467#1 218670467#2 -218899446#3 -218899446#1 -218899446#0 88292194#3 88292194#4 88292194#5 88292194#6 -1157687719#4 -1157687719#3 -1157687719#2 189512167#0 189512167#1 599496409#0 599496409#1 599496409#2 218652254#0 218652254#1 88142349#2 218652256#0 218652256#1 218652258 218899454 599496410#1 599496410#2 599496410#3 1017920809#0 1017920809#1"/>
    </vehicle>
    <vehicle id="flow_1025551194_EB.6" type="car" depart="175.61">
        <route edges="88289922#6 88289922#7 88289922#8 189663799 95474932#0 95474932#1 95474932#2 -189512167#1 -189512167#0 -1157687719#1 -1157687719#0 1157687719#0 1157687719#1 1157687719#2 1157687719#3 -1157687719#3 -1157687719#2 189512167#0 189512167#1 189512167#2 218899448 218899452 -896870295 -896870299 -141624560#4 -141624560#3 -141624560#2 -141624560#1 -141624560#0 -88291250#1 -88291250#0 -88289922#6 -88289922#5 -88289922#4 88289922#4 88289922#5"/>
    </vehicle>
    <vehicle id="flow_1025551194_SB.4" type="car" depart="175.61">
        <route edges="-88291250#0 88289922#7 88289922#8 1017920809#0 1017920809#1"/>
    </vehicle>
    <vehicle id="flow_1025551194_WB.9" type="car" depart="195.17">
        <route edges="-88289922#7 -88289922#6 -88289922#5 -88289922#4 -88289922#3 -88289922#2 88289922#2 88290893#0 88290893#1 88290007#5 88291002#1 -88291002#1 88290007#6 88290007#7 88290007#8 -88290007#8 -88290007#7 -88290007#6 -88290007#5 -88290007#4 88290007#4 -88290893#1 -88290893#0 88289922#3 88289922#4 88289922#5 88289922#6 88289922#7 88289922#8 -88289922#8"/>
    </vehicle>
    <vehicle id="flow_1025551194_EB.7" type="car" depart="204.88">
        <route edges="88289922#6 88289922#7 88289922#8 -88289922#8 -88289922#7 -88289922#6 -88289922#5 -88289922#4 -88290007#1 -88290007#0 88290007#0 88290007#1 88290007#2 88290007#3 88291004 -88291004 -88290007#3 -88290007#2 -88289922#3 88290893#0 88290893#1 88290007#5 88290007#6 88290007#7 88290007#8 88290007#9 88290007#10 -88290007#10 -88290007#9 88289922#2 88289922#3 88289922#4 88289922#5"/>
    </vehicle>
    <vehicle id="flow_1025551194_WB.10" type="car" depart="216.86">
        <route edges="-88289922#7 -88289922#6 -88289922#5 -88289922#4 -88290007#1 -88290007#0 88290007#0 88290007#1 -88289922#3 88289922#3 88289922#4 88289922#5 88289922#6 88289922#7 88289922#8 1017920809#0 1017920809#1"/>
    </vehicle>
    <vehicle id="flow_1025551194_SB.5" type="car" depart="219.51">
        <route edges="-88291250#0 -88289922#6 -88289922#5 -88289922#4 -88290007#1 -88290007#0 88290007#0 88290007#1 -88289922#3 -88289922#2 -88290007#8 -95475018 95475018 -88290007#7 -88290007#6 -88290007#5 88290007#5 -88291002#0 88291002#0 88290007#6 88290007#7 88290007#8 88289922#2 88290893#0 88290893#1 88290893#2 -88290893#2 -88290893#1 -88290893#0 88289922#3 88290007#2 88290007#3 88290007#4 -88290007#4 88291004 -88291004 -88290007#3 -88290007#2 88289922#4 88289922#5 88289922#6 88289922#7 88289922#8 -88289922#8 -88289922#7 88291250#0 88291250#1 88291250#2 88291250#3 -88291250#3 -88291250#2 141624560#0 141624560#1 141624560#2 141624560#3 141624560#4 896870299 896870295 -218899452 218899453 599496410#1 372292804 773828749 -773828749"/>
    </vehicle>
    <vehicle id="flow_1025551194_EB.8" type="car" depart="234.14">
        <route edges="88289922#6 88289922#7 88289922#8 -88289922#8 -88289922#7 88291250#0 88291250#1 141624560#0 141624560#1 141624560#2 141624560#3 141624560#4 896870299 896870295 896870298 218899451#1 218899451#2 218899451#3 218899451#4 218899451#5 218899451#6 218899451#7 -218899451#7 -218899451#6 -218899451#5 189666893#0 189666893#1 -189666893#1 -189666893#0 -218899451#4 -218899451#3 -218899451#2 -218899451#1 -896870298 -218899452 218899453 599496410#1 372292804 773828749 -773828749"/>
    </vehicle>
    <vehicle id="flow_1025551194_WB.11" type="car" depart="238.55">
        <route edges="-88289922#7 -88289922#6 -88289922#5 -88289922#4 -88289922#3 88290893#0 88290893#1 -88290893#1 -88290893#0 -88289922#2 88289922#2 88289922#3 88290007#2 88290007#3 88291004 -88291004 -88290007#3 -88290007#2 88289922#4 88289922#5 88289922#6 88289922#7 88289922#8 1017920809#0 1017920809#1"/>
    </vehicle>
    <vehicle id="flow_1025551194_WB.12" type="car" depart="260.23">
        <route edges="-88289922#7 88291250#0 88291250#1 88291250#2 88291250#3 88291120 218652276 218652292 218652304#0 321934076#0 321934076#1 218652256#1 218899449 -189666893#1 -189666893#0 -218899451#4 -218899451#3 -218899451#2 -218899451#1 -896870298 -218899452 218899453 599496410#1 599496410#2 599496410#3 1017920809#0 1017920809#1"/>
    </vehicle>
    <vehicle id="flow_1025551194_EB.9" type="car" depart="263.41">
        <route edges="88289922#6 88289922#7 88289922#8 -88289922#8 -88289922#7 -88289922#6 -88289922#5 -88289922#4 88290007#2 88290007#3 88290007#4 88290893#2 -88290893#2 -88290007#4 88291004 -88291004 -88290007#3 -88290007#2 -88290007#1 -88290007#0 88290007#0 88290007#1 88289922#4 88289922#5"/>
    </vehicle>
    <vehicle id="flow_1025551194_SB.6" type="car" depart="263.41">
        <route edges="-88291250#0 88289922#7 88289922#8 -88289922#8 -88289922#7 -88289922#6 -88289922#5 -88289922#4 88289922#4 88289922#5 88289922#6 88291250#0 88291250#1 141624560#0 141624560#1 141624560#2 141624560#3 141624560#4 896870299 896870295 896870298 218899451#1 218899451#2 218899451#3 218899451#4 -218899451#4 -218899451#3 -218899451#2 -218899451#1 -896870298 -218899452 218899453 599496410#1 372292804 773828749 -141624560#2 -141624560#1 -141624560#0 88291250#2 88291250#3 88291120 218652276 218652292 218652304#0 218652304#1 218652287#0 88142349#2 218652256#0 218652256#1 218899449 218899450 218899454 -189512167#2 -189512167#1 -189512167#0 -1157687719#1 -1157687719#0 1157687719#0 1157687719#1 189512167#0 189512167#1 599496409#0 88293117"/>
    </vehicle>
    <vehicle id="flow_1025551194_WB.13" type="car" depart="281.92">
        <route edges="-88289922#7 -88289922#6 -88289922#5 -88289922#4 -88290007#1 -88290007#0 88290007#0 88290007#1 -88289922#3 -88289922#2 88290007#9 88290007#10 88290696 -88290696 88290007#11 -88290007#11 -88290007#10 -88290007#9 88289922#2 88289922#3 88289922#4 88289922#5 88289922#6 88289922#7 88289922#8 189663799 -189663799 1017920809#0 1017920809#1"/>
    </vehicle>
    <vehicle id="flow_1025551194_EB.10" type="car" depart="292.68">
        <route edges="88289922#6 88289922#7 88289922#8 189663799 95474932#0 95474932#1 95474932#2 189512167#2 -189512167#2 599496409#0 599496409#1 599496409#2 218652254#0 218652330#0 218652330#1 218652299#3 218652286 218652277"/>
    </vehicle>
    <vehicle id="flow_1025551194_WB.14" type="car" depart="303.60">
        <route edges="-88289922#7 -88289922#6 -88289922#5 -88289922#4 -88290007#1 -88290007#0 88290007#0 88290007#1 -88289922#3 88289922#3 88290007#2 88290007#3 88290007#4 -88290893#1 -88290893#0 88290893#0 88290893#1 88290007#5 88290007#6 88290007#7 -95475018 95475018 88290007#8 -88289922#1 -88289922#0 88289922#0 88289922#1 88289922#2 -88289922#2 -88290007#8 -88290007#7 -88290007#6 88291002#1 -88291002#1 -88291002#0 88291002#0 -88290007#5 -88290007#4 -88290007#3 -88290007#2 88289922#4 88289922#5 88289922#6 88289922#7 88289922#8 189663799 95474932#0 95474932#1 95474932#2 599496409#0 599496409#1 599496409#2 218652254#0 218652254#1 218652293#1 218652290#0 218652290#1 1166318940 1166318930#3 1166318931 -380521629#6 -380521629#4 -380521629#2 -380521629#1 -380521629#0 380521629#0 380521629#1 380521629#2 189666882 401139261 380521629#4 380521629#6 1166318932 1166318930#2"/>
    </vehicle>
    <vehicle id="flow_1025551194_SB.7" type="car" depart="307.31">
        <route edges="-88291250#0 88289922#7 88289922#8 189663799 95474932#0 95474932#1 95474932#2 -189512167#1 -189512167#0 1157687719#2 1157687719#3 1157687719#4 -88292194#6 -88292194#5 -88292194#4 -88292194#3 -88292194#2 -88292194#1 -88292194#0 88292194#0 88292194#1 88292194#2 88292194#3 88292194#4 88292194#5 88292194#6 1157687719#5 -1157687719#5 -1157687719#4 218899446#3 -218670467#2 -218670467#1 -218670467#0 218670467#0 -88293081 88293081 218670467#1 218670467#2 218899446#4 -218899446#4 -218899446#3 -1157687719#3 -1157687719#2 189512167#0 189512167#1 189512167#2 218899448 218899452 896870298 218899451#1 218899451#2 218899451#3 218899451#4 218899451#5 218899451#6 218899451#7 -218899451#7 -218899451#6 -218899451#5 -218899451#4 -218899451#3 -218899451#2 -218899451#1 -896870298 -218899452 218899453 599496410#1 599496410#2 599496410#3 -88289922#8 -88289922#7 88291250#0 88291250#1 88291250#2 88291250#3 88291120 218652276 218652292 218652304#0 321934076#0 321934076#1 218652256#1 218899449 -189666893#1 -189666893#0 189666893#0 189666893#1 218899450 218899454 -189512167#2 599496409#0 88293117"/>
    </vehicle>
    <vehicle id="flow_1025551194_EB.11" type="car" depart="321.95">
        <route edges="88289922#6 88289922#7 88289922#8 189663799 95474932#0 95474932#1 95474932#2 -189512167#1 -189512167#0 189512167#0 189512167#1 189512167#2 599496410#1 372292804 773828749 141624560#3 141624560#4 896870299 896870295 896870298 218899451#1 218899451#2 218899451#3 218899451#4 218899451#5 218899451#6 218899451#7 -218899451#7 -218899451#6 -218899451#5 189666893#0 189666893#1 218899450 218899454 -189512167#2 599496409#0 88293117"/>
    </vehicle>
    <vehicle id="flow_1025551194_WB.15" type="car" depart="325.29">
        <route edges="-88289922#7 -88289922#6 -88289922#5 -88289922#4 88290007#2 88290007#3 88290007#4 -88290007#4 88291004 -88291004 -88290007#3 -88290007#2 -88289922#3 88290893#0 88290893#1 88290007#5 88290007#6 88290007#7 88290007#8 88290007#9 88290007#10 88290007#11 -88290007#11 -88290007#10 -88290007#9 88289922#2 88289922#3 -88290007#1 -88290007#0 88290007#0 88290007#1 88289922#4 88289922#5 88289922#6 88289922#7 88289922#8 189663799 -189663799 1017920809#0 1017920809#1"/>
    </vehicle>
    <vehicle id="flow_1025551194_WB.16" type="car" depart="346.98">
        <route edges="-88289922#7 -88289922#6 -88289922#5 -88289922#4 -88289922#3 -88289922#2 -88290007#8 -95475018 95475018 -88290007#7 -88290007#6 88291002#1 -88291002#1 -88291002#0 88291002#0 88290007#6 88290007#7 88290007#8 88290007#9 88290007#10 88290696 -88290696 88290007#11 -88290007#11 -88290007#10 -88290007#9 88289922#2 88290893#0 88290893#1 88290893#2 -88290893#2 -88290007#4 -88290007#3 -88290007#2 -88290007#1 -88290007#0 88290007#0 88290007#1 88289922#4 88289922#5 88289922#6 88291250#0 88291250#1 141624560#0 141624560#1 141624560#2 -773828749 773828749 -141624560#2 -141624560#1 -141624560#0 88291250#2 88291250#3 88291120 218652276 218652292 218652304#0 218652304#1 218652287#0 218652293#1 218652290#0 218652290#1 218652269"/>
    </vehicle>
    <vehicle id="flow_1025551194_EB.12" type="car" depart="351.22">
        <route edges="88289922#6 88291250#0 88291250#1 141624560#0 141624560#1 141624560#2 -773828749 773828749 141624560#3 141624560#4 896870299 896870295 -896870295 -896870299 -141624560#4 -141624560#3 -141624560#2 -141624560#1 -141624560#0 -88291250#1 -88291250#0 -88289922#6 -88289922#5 -88289922#4 -88289922#3 -88289922#2 -88289922#1 -88289922#0 88289922#0 88289922#1 88290007#9 88290007#10 88290007#11 -88290007#11 -88290007#10 -88290007#9 88289922#2 88289922#3 88289922#4 88289922#5"/>
    </vehicle>
    <vehicle id="flow_1025551194_SB.8" type="car" depart="351.22">
        <route edges="-88291250#0 -88289922#6 -88289922#5 -88289922#4 -88289922#3 -88289922#2 88290007#9 88290007#10 88290696 -88290696 88290007#11 -88290007#11 -88290007#10 -88290007#9 -88290007#8 88290007#8 -88289922#1 -88289922#0 88289922#0 88289922#1 88289922#2 88289922#3 -88290007#1 -88290007#0 88290007#0 88290007#1 88289922#4 88289922#5 88289922#6 88289922#7 88289922#8 189663799 -189663799 -88289922#8 -88289922#7 88291250#0 88291250#1 -88291250#1"/>
    </vehicle>
    <vehicle id="flow_1025551194_WB.17" type="car" depart="368.66">
        <route edges="-88289922#7 -88289922#6 -88289922#5 -88289922#4 88290007#2 88290007#3 88290007#4 -88290007#4 88291004 -88291004 -88290007#3 -88290007#2 -88289922#3 88289922#3 88289922#4 88289922#5 88289922#6 88289922#7 88289922#8 189663799 95474932#0 95474932#1 95474932#2 599496409#0 88293117"/>
    </vehicle>
    <vehicle id="flow_1025551194_EB.13" type="car" depart="380.48">
        <route edges="88289922#6 88289922#7 88289922#8 -88289922#8 -88289922#7 -88289922#6 -88289922#5 -88289922#4 -88290007#1 -88290007#0 88290007#0 88290007#1 88290007#2 88290007#3 -88290007#3 -88290007#2 -88289922#3 -88289922#2 88290007#9 88290007#10 88290696 -88290696 88290007#11 -88290007#11 -88290007#10 -88290007#9 -88290007#8 -95475018 95475018 -88290007#7 -88290007#6 88291002#1 -88291002#1 -88291002#0 88291002#0 -88290007#5 -88290007#4 88291004 -88291004 88290007#4 -88290893#1 -88290893#0 88289922#3 88289922#4 88289922#5"/>
    </vehicle>
    <vehicle id="flow_1025551194_WB.18" type="car" depart="390.35">
        <route edges="-88289922#7 -88289922#6 -88289922#5 -88289922#4 -88290007#1 -88290007#0 88290007#0 88290007#1 88289922#4 88289922#5 88289922#6 88291250#0 88291250#1 88291250#2 88291250#3 -88291250#3 -88291250#2 141624560#0 141624560#1 141624560#2 -773828749 773828749 141624560#3 141624560#4 896870299 896870295 896870298 218899451#1 218899451#2 218899451#3 218899451#4 218899451#5 218899451#6 218899451#7 -218899451#7 -218899451#6 -218899451#5 -218899451#4 -218899451#3 -218899451#2 -218899451#1 -896870298 -218899452 218899453 599496410#1 599496410#2 599496410#3 1017920809#0 1017920809#1"/>
    </vehicle>
    <vehicle id="flow_1025551194_SB.9" type="car" depart="395.12">
        <route edges="-88291250#0 88289922#7 88289922#8 189663799 95474932#0 95474932#1 95474932#2 599496409#0 599496409#1 599496409#2 218652254#0 218652254#1 218652293#1 218652290#0 218652290#1 218652269"/>
    </vehicle>
    <vehicle id="flow_1025551194_EB.14" type="car" depart="409.75">
        <route edges="88289922#6 88289922#7 88289922#8 189663799 -189663799 -88289922#8 -88289922#7 88291250#0 88291250#1 88291250#2 88291250#3 88291120 218652276 218652292 218652304#0 218652304#1 218652287#0 88142349#2 218652256#0 218652256#1 218899449 -189666893#1 -189666893#0 -218899451#4 -218899451#3 -218899451#2 -218899451#1 -896870298 -218899452 218899453 599496410#1 599496410#2 599496410#3 1017920809#0 1017920809#1"/>
    </vehicle>
    <vehicle id="flow_1025551194_WB.19" type="car" depart="412.03">
        <route edges="-88289922#7 88291250#0 88291250#1 88291250#2 88291250#3 88291120 218652276 218652292 218652304#0 218652304#1 218652287#0 218652299#2 218652299#3 218652286 218652277"/>
    </vehicle>
    <vehicle id="flow_1025551194_WB.20" type="car" depart="433.72">
        <route edges="-88289922#7 88291250#0 88291250#1 -88291250#1 -88291250#0 88289922#7 88289922#8 1017920809#0 1017920809#1"/>
    </vehicle>
    <vehicle id="flow_1025551194_EB.15" type="car" depart="439.02">
        <route edges="88289922#6 88291250#0 88291250#1 -88291250#1 -88291250#0 -88289922#6 -88289922#5 -88289922#4 -88289922#3 88289922#3 88289922#4 88289922#5"/>
    </vehicle>
    <vehicle id="flow_1025551194_SB.10" type="car" depart="439.02">
        <route edges="-88291250#0 -88289922#6 -88289922#5 -88289922#4 -88289922#3 -88289922#2 -88290007#8 -95475018 95475018 88290007#8 88289922#2 88290893#0 88290893#1 88290007#5 88290007#6 88290007#7 -88290007#7 -88290007#6 -88290007#5 88290893#2 -88290893#2 -88290007#4 88291004 -88291004 88290007#4 -88290893#1 -88290893#0 88289922#3 88289922#4 88289922#5 88289922#6 88289922#7 88289922#8 -88289922#8 -88289922#7 88291250#0 88291250#1 88291250#2 88291250#3 88291120 218652276 218652292 218652304#0 321934076#0 321934076#1 218652256#1 218652258 218899454 599496410#1 372292804 773828749 141624560#3 141624560#4 896870299 896870295 -896870295 -896870299 -141624560#4 -141624560#3 -773828749"/>
    </vehicle>
    <vehicle id="flow_1025551194_WB.21" type="car" depart="455.41">
        <route edges="-88289922#7 -88289922#6 -88289922#5 -88289922#4 -88289922#3 88289922#3 -88290007#1 -88290007#0 88290007#0 88290007#1 88289922#4 88289922#5 88289922#6 88289922#7 88289922#8 1017920809#0 1017920809#1"/>
    </vehicle>
    <vehicle id="flow_1025551194_EB.16" type="car" depart="468.29">
        <route edges="88289922#6 88291250#0 88291250#1 141624560#0 141624560#1 141624560#2 141624560#3 141624560#4 896870299 896870295 -896870295 -896870299 -141624560#4 -141624560#3 -141624560#2 -141624560#1 -141624560#0 -88291250#1 -88291250#0 88289922#7 88289922#8 189663799 95474932#0 95474932#1 95474932#2 599496409#0 599496409#1 599496409#2 218652254#0 218652330#0 218652330#1 218652299#3 218652286 218652277"/>
    </vehicle>
    <vehicle id="flow_1025551194_WB.22" type="car" depart="477.09">
        <route edges="-88289922#7 -88289922#6 -88289922#5 -88289922#4 -88289922#3 88289922#3 88289922#4 88289922#5 88289922#6 88289922#7 88289922#8 -88289922#8"/>
    </vehicle>
    <vehicle id="flow_1025551194_SB.11" type="car" depart="482.92">
        <route edges="-88291250#0 -88289922#6 -88289922#5 -88289922#4 88289922#4 88289922#5 88289922#6 88289922#7 88289922#8 1017920809#0 1017920809#1"/>
    </vehicle>
    <vehicle id="flow_1025551194_EB.17" type="car" depart="497.56">
        <route edges="88289922#6 88289922#7 88289922#8 189663799 95474932#0 95474932#1 95474932#2 -189512167#1 -189512167#0 1157687719#2 1157687719#3 218899446#3 -218899446#3 -1157687719#3 -1157687719#2 189512167#0 189512167#1 599496409#0 599496409#1 599496409#2 218652254#0 218652254#1 218652293#1 218652290#0 218652290#1 218652269"/>
    </vehicle>
    <vehicle id="flow_1025551194_WB.23" type="car" depart="498.78">
        <route edges="-88289922#7 88291250#0 88291250#1 -88291250#1 -88291250#0 -88289922#6 -88289922#5 -88289922#4 -88289922#3 -88289922#2 88289922#2 88289922#3 -88290007#1 -88290007#0 88290007#0 88290007#1 88289922#4 88289922#5 88289922#6 88289922#7 88289922#8 -88289922#8"/>
    </vehicle>
    <vehicle id="flow_1025551194_WB.24" type="car" depart="520.46">
        <route edges="-88289922#7 -88289922#6 -88289922#5 -88289922#4 -88290007#1 -88290007#0 88290007#0 88290007#1 88290007#2 88290007#3 88290007#4 88290007#5 -88291002#0 88291002#0 88291002#1 -88291002#1 88290007#6 88290007#7 -88290007#7 -88290007#6 -88290007#5 -88290007#4 88291004 -88291004 -88290007#3 -88290007#2 88289922#4 88289922#5 88289922#6 88291250#0 88291250#1 88291250#2 88291250#3 88291120 218652276 218652292 218652304#0 321934076#0 321934076#1 218652256#1 218899449 218899450 218899454 599496410#1 372292804 773828749 -141624560#2 -141624560#1 -141624560#0 -88291250#1 -88291250#0 88289922#7 88289922#8 1017920809#0 1017920809#1"/>
    </vehicle>
    <vehicle id="flow_1025551194_EB.18" type="car" depart="526.82">
        <route edges="88289922#6 88289922#7 88289922#8 -88289922#8 -88289922#7 88291250#0 88291250#1 88291250#2 88291250#3 88291120 218652276 218652292 218652304#0 321934076#0 321934076#1 218652256#1 218899449 -189666893#1 -189666893#0 -218899451#4 -218899451#3 -218899451#2 -218899451#1 -896870298 -218899452 218899453 599496410#1 599496410#2 599496410#3 1017920809#0 1017920809#1"/>
    </vehicle>
    <vehicle id="flow_1025551194_SB.12" type="car" depart="526.82">
        <route edges="-88291250#0 -88289922#6 -88289922#5 -88289922#4 -88289922#3 88289922#3 88289922#4 88289922#5 88289922#6 88289922#7 88289922#8 189663799 -189663799 1017920809#0 1017920809#1"/>
    </vehicle>