<?xml version="1.0" encoding="UTF-8"?>

<!-- generated on 2025-12-12T14:13:46.917429+05:30 by Eclipse SUMO jtrrouter 1.25.0
<jtrrouterConfiguration xmlns:xsi="http://www.w3.org/2001/XMLSchema-instance" xsi:noNamespaceSchemaLocation="http://sumo.dlr.de/xsd/jtrrouterConfiguration.xsd">

    <input>
        <net-file value="map.net.xml"/>
        <route-files value="flows.xml"/>
        <turn-ratio-files value="turns.xml"/>
    </input>

    <output>
        <output-file value="traffic.rou.xml"/>
    </output>

    <processing>
        <accept-all-destinations value="true"/>
    </processing>

    <time>
        <begin value="0"/>
        <end value="3600"/>
    </time>

    <random_number>
        <seed value="42"/>
    </random_number>

</jtrrouterConfiguration>
-->

<routes xmlns:xsi="http://www.w3.org/2001/XMLSchema-instance" xsi:noNamespaceSchemaLocation="http://sumo.dlr.de/xsd/routes_file.xsd">
    <vType id="car" length="5.00" minGap="2.50" maxSpeed="55.55" accel="2.6" decel="4.5" sigma="0.5"/>
    <vehicle id="flow_1550214890_NB.0" type="car" depart="0.00">
        <route edges="88291250#1 141624560#0 141624560#1 141624560#2 -773828749 773828749 -141624560#2 -141624560#1 -141624560#0 -88291250#1 -88291250#0 -88289922#7 -88289922#6 -88289922#5 -88289922#4 88289922#4 88289922#5 88289922#6 88289922#7 88291250#0"/>
    </vehicle>
    <vehicle id="flow_1550214890_SB.0" type="car" depart="0.00">
        <route edges="-88291250#2 141624560#0 141624560#1 141624560#2 -141624560#2 -141624560#1 -141624560#0 88291250#2 88291250#3 88291120 218652276 218652292 218652304#0 218652304#1 218652287#0 100574869#1 100574869#2 100574869#3 100574869#4 100574869#5 100574869#6 238694432#0 238694432#1 238694432#2 238694432#3 238694432#4 400916783#0 400916783#1 218652290#1 1166318940 1166318930#4 1166318933#0 1166318933#1 1166318930#1 1166318931 -380521629#7 -380521629#5 380521629#5 189666897 401139262#1 401139262#2 -401139262#2 -401139262#1 -189666896 189666896 -189666900 189666900 401139258 380521629#7 1166318932 1166318930#3"/>
    </vehicle>
    <vehicle id="flow_1550214890_WB.0" type="car" depart="0.00">
        <route edges="-141624560#0 -88291250#1 -88291250#0 88289922#8 88289922#9 1017920809#1 1017920809#2 -218816683#1 -218816683#0 -744337053 1060322786 1060322789 36897651 301006764 301006763 301006767#0 301006767#2 301006767#3 218953332 36897716 1413592579 36910012#0 36910012#1 36911208 52464999 198384321 1300188115#0 121940603#0 121940603#1 1076362463 1076362462#1 229491269#1 82697086 99032567#0 99032567#1 99032567#2 877757463#0 877757463#1 1388009663 1388009662 1387995569 1387995570 82698442#0 82698442#1 82698442#3 232701838 1059797020 191650811 1387930320 1387930319#0 1387930319#1 1359894763#1 968949803 232701835 99032584 82698808 1073865805 133369010 1042849453 186580193 533063512 533063510 52464983 37350055 7672415 502984075 1342045788 748911032 937763922 1111216005 768711364 768711365 502989760 502989756#0 502989756#1 1111241348 37185415 1392529864 43360816 1392529861 1392529862 229624408#0 229624408#1 229624410 1409966281 1409966279 413440295 1413014885 229624402 1411132867 1411132869 1411132868 229625010#1 222239051 1416927585 1416927587 229626973 229626979 37103424 37103454 222239071 7683873#1 222239067 222239072 17151421#1 222239074 222239062 1436607384 1436607382 222239066#0 222239066#1 106298093 1044093145 1262590331 778369425#2 -778369425#2 -778369425#0 -1044093144 652353420 106298085 990290689#1 222239063 222239065 222239069#0 222239069#1 222239068 222239064 968258292 222239070 229626974 1418255615 1418255614 1418255616 1418255618 222239052#0 229625009 -1413014885 -413440295 -1413014887 -413440297 -229624410 229624405 1396137423 1396137422#0 1396137422#1 1396137420#1 229624401 229624414 229623178 1111241341 1111241340#0 1111241340#1 682677105#1 1059878843 768711367 672596440 502985243 502984422 502984421 38656071 533063511 37317150 82698882 533063513 99032614 82698828 82698813 1111618786 99032580 1388210073 232701834 1388210074 -1359894763#1 -1387930319#1 -1387930319#0 -1387930320 -191650811 191650918 1064293959 1064293960 1064293961 1064293963 232701836 1064293965 1064293964 888358407 877757470 1388009665 877757471#0 877757471#1 1300165231#0 1300165231#1 1300165238 82698186 1300165234 1300165233#0 1300165230 82695927#0 82695927#2 1076362460 229491267 1300188116 121045624#0 121045624#1 229491268#1 222969756 222969755 7686693 52464997 36897652 95471457#0 95471457#1 95471457#3 301006766 301006765#0 301006762 1060322785#0 1060322785#1 218816681 218816683#0 218816683#1 773677691#0 1014074585 1014074582#0 1014074582#1 1014074587#3 1014074581#0 1014074581#1 1157687720 -1157687720 1014074580#0 1014074580#1 1014074587#5 1014074587#6 1014074587#7 1014074587#8 1014074587#1 387841627#0 387841627#1 -1014074585 -88289922#9 -88289922#8 88291250#0 88291250#1 88291250#2 88291250#3 -88291250#3 -88291250#2 141624560#0 141624560#1 141624560#2 -141624560#2 -141624560#1"/>
    </vehicle>
    <vehicle id="flow_1550214890_SB.1" type="car" depart="44.44">
        <route edges="-88291250#2 141624560#0 141624560#1 141624560#2 141624560#3 141624560#4 896870299 896870295 -218899452 218899453 599496410#1 372292804 773828749 -141624560#2 -141624560#1 -141624560#0 -88291250#1 -88291250#0 88289922#8 88289922#9 95474932#0 95474932#1 95474932#2 218899448 218899452 -896870295 -896870299 -141624560#4 -141624560#3 -773828749"/>
    </vehicle>
    <vehicle id="flow_1550214890_WB.1" type="car" depart="45.57">
        <route edges="-141624560#0 -88291250#1 -88291250#0 88289922#8 88289922#9 1014074585 1014074582#0 1014074582#1 1014074587#3 1014074581#0 1014074581#1 1157687720 -1157687720 1014074580#0 1014074580#1 1014074587#5 1014074579#0 1014074579#1 -1030097807#3 -1030097807#2 -1030097807#1 -1030097807#0 1030097810 1030097808#2 -218816683#3 -218816683#1 -218816683#0 -744337053 1060322786 1060322789 36897651 301006764 301006763 301006767#0 301006767#2 301006767#3 218953332 36897716 1413592579 36910012#0 36910012#1 36911208 52464999 198384321 1300188115#0 121940603#0 121940603#1 1076362463 1076362462#1 229491269#1 82697086 99032567#0 99032567#1 99032567#2 877757463#0 877757463#1 1388009663 1388009662 1387995569 1387995570 82698442#0 82698442#1 82698442#3 232701838 1059797020 191650811 1387930320 1387930319#0 1387930319#1 1359894763#1 968949803 232701835 99032584 82698808 1073865805 133369010 1042849453 186580193 533063512 533063510 52464983 37350055 7672415 502984075 1342045788 748911032 937763922 1111216005 768711364 768711365 502989760 502989756#0 502989756#1 1111241348 37185415 1392529864 43360816 1392529861 1392529862 229624408#0 229624408#1 229624410 1409966281 1409966279 413440295 1413014885 229624402 1411132867 1411132869 1411132868 229625010#1 222239051 1416927585 1416927587 229626973 229626979 37103424 37103454 222239071 7683873#1 222239067 222239072 17151421#1 222239074 222239062 1436607384 1436607382 222239066#0 222239066#1 106298093 1044093145 1262590331 778369425#2 -778369425#2 -778369425#0 -1044093144 652353420 106298085 990290689#1 222239063 222239065 222239069#0 222239069#1 222239068 222239064 968258292 222239070 229626974 1418255615 1418255614 1418255616 1418255618 222239052#0 229625009 -1413014885 -413440295 -1413014887 -413440297 -229624410 229624405 1396137423 1396137422#0 1396137422#1 1396137420#1 229624401 229624414 229623178 1111241341 1111241340#0 1111241340#1 682677105#1 1059878843 768711367 672596440 502985243 502984422 502984421 38656071 533063511 37317150 82698882 533063513 99032614 82698828 82698813 1111618786 99032580 1388210073 232701834 1388210074 -1359894763#1 -1387930319#1 -1387930319#0 -1387930320 -191650811 191650918 1064293959 1064293960 1064293961 1064293963 232701836 1064293965 1064293964 888358407 877757470 1388009665 877757471#0 877757471#1 1300165231#0 1300165231#1 1300165238 82698186 1300165234 1300165233#0 1300165230 82695927#0 82695927#2 1076362460 229491267 1300188116 121045624#0 121045624#1 229491268#1 222969756 222969755 7686693 52464997 36897652 95471457#0 95471457#1 95471457#3 301006766 301006765#0 301006762 1060322785#0 1060322785#1 218816681 218816683#0 218816683#1 218816683#3 1012604030#0 1030097809 1012604029 1012604030#2 1030097806#0 1030097806#1 218899461 218899459 767779811 218899458#0 -218899458#0 -767779811 -218899459 -218899461 -1030097806#1 -1030097806#0 1030097808#0 1030097808#1"/>
    </vehicle>
    <vehicle id="flow_1550214890_NB.1" type="car" depart="72.00">
        <route edges="88291250#1 141624560#0 141624560#1 141624560#2 -141624560#2 -141624560#1 -141624560#0 88291250#2 88291250#3 88291120 218652276 218652292 218652304#0 321934076#0 321934076#1 218652256#1 -189666893#1 -189666893#0 218899451#5 218899451#6 218899451#7 -218899451#7 -218899451#6 -218899451#5 189666893#0 189666893#1 218899450 218899454 218899448 218899452 896870298 218899451#1 218899451#2 218899451#3 218899451#4 -218899451#4 -218899451#3 -218899451#2 -218899451#1 -896870298 -896870295 -896870299 -141624560#4 -141624560#3 141624560#3 141624560#4 896870299 896870295 -218899452 218899453 599496410#1 372292804 773828749 -773828749"/>
    </vehicle>
    <vehicle id="flow_1550214890_SB.2" type="car" depart="88.89">
        <route edges="-88291250#2 -88291250#1 -88291250#0 88289922#8 88289922#9 1017920809#1 1017920809#2 -218816683#1 -218816683#0 -744337053 1060322786 1060322789 36897651 301006764 301006763 301006767#0 301006767#2 301006767#3 218953332 36897716 1413592579 36910012#0 36910012#1 36911208 52464999 198384321 1300188115#0 121940603#0 121940603#1 1076362463 1076362462#1 229491269#1 82697086 99032567#0 99032567#1 99032567#2 877757463#0 877757463#1 1388009663 1388009662 1387995569 1387995570 82698442#0 82698442#1 82698442#3 232701838 1059797020 191650811 1387930320 1387930319#0 1387930319#1 1359894763#1 968949803 232701835 99032584 82698808 1073865805 133369010 1042849453 186580193 533063512 533063510 52464983 37350055 7672415 502984075 1342045788 748911032 937763922 1111216005 768711364 768711365 502989760 502989756#0 502989756#1 1111241348 37185415 1392529864 43360816 1392529861 1392529862 229624408#0 229624408#1 229624410 1409966281 1409966279 413440295 1413014885 229624402 1411132867 1411132869 1411132868 229625010#1 222239051 1416927585 1416927587 229626973 229626979 37103424 37103454 222239071 7683873#1 222239067 222239072 17151421#1 222239074 222239062 1436607384 1436607382 222239066#0 222239066#1 106298093 1044093145 1262590331 778369425#2 -778369425#2 -778369425#0 -1044093144 652353420 106298085 990290689#1 222239063 222239065 222239069#0 222239069#1 222239068 222239064 968258292 222239070 229626974 1418255615 1418255614 1418255616 1418255618 222239052#0 229625009 -1413014885 -413440295 -1413014887 -413440297 -229624410 229624405 1396137423 1396137422#0 1396137422#1 1396137420#1 229624401 229624414 229623178 1111241341 1111241340#0 1111241340#1 682677105#1 1059878843 768711367 672596440 502985243 502984422 502984421 38656071 533063511 37317150 82698882 533063513 99032614 82698828 82698813 1111618786 99032580 1388210073 232701834 1388210074 -1359894763#1 -1387930319#1 -1387930319#0 -1387930320 -191650811 191650918 1064293959 1064293960 1064293961 1064293963 232701836 1064293965 1064293964 888358407 877757470 1388009665 877757471#0 877757471#1 1300165231#0 1300165231#1 1300165238 82698186 1300165234 1300165233#0 1300165230 82695927#0 82695927#2 1076362460 229491267 1300188116 121045624#0 121045624#1 229491268#1 222969756 222969755 7686693 52464997 36897652 95471457#0 95471457#1 95471457#3 301006766 301006765#0 301006762 1060322785#0 1060322785#1 218816681 218816683#0 218816683#1 218816683#3 1012604030#0 1012604030#1 1012604030#2 1030097806#0 1030097806#1 218899461 218899459 767779811 218899458#0 -218899458#0 -767779811 -218899459 -218899461 -1030097806#1 -1030097806#0 1030097808#0 1030097808#1 1030097808#2 -218816683#3 773677691#0 95474932#0 95474932#1 95474932#2 599496409#0 599496409#2 218652254#0 218652330#0 218652330#1 218652299#3 218652286 218652277 -218678722#1 -218678722#0 -1157687719#5 218899455#1 218899455#3 88292199#0 88292199#1 88292199#2 88292199#3 -88292199#3 -88292199#2 -88292199#1 -88292199#0 218899455#4 218899455#5 218899455#6 -218899455#6 -218899455#5 -218899455#4 -218899455#3 -218899455#1 1157687719#5 218678722#0 218678722#1 218652279#1 218652311 218652297#1 88140469 1318023438 218652316 218652295#0 218652308#1 218652302 218652281#0 218652281#1 218652294#0 218652293#1 218652290#0 218652290#1 218652269"/>
    </vehicle>
    <vehicle id="flow_1550214890_WB.2" type="car" depart="91.14">
        <route edges="-141624560#0 -88291250#1 -88291250#0 88289922#8 88289922#9 -88289922#9 -88289922#8 -88289922#7 -88289922#6 -88289922#5 88290007#3 88290007#4 88291004 -88291004 -88290007#4 -88290007#3 88289922#5 88289922#6 88289922#7 88291250#0 88291250#1 141624560#0 141624560#1 141624560#2 -141624560#2 -141624560#1"/>
    </vehicle>
    <vehicle id="flow_1550214890_SB.3" type="car" depart="133.33">
        <route edges="-88291250#2 -88291250#1 -88291250#0 88289922#8 88289922#9 1017920809#1 1017920809#2 218816683#3 1012604030#0 1030097809 -1034951450#1 -1034951450#0 1034951450#0 1034951450#1 1012604029 1012604030#2 1030097806#0 1030097806#1 218899461 218899459 767779811 218899458#0 -218899458#0 -767779811 -218899459 -218899461 -1030097806#1 -1030097806#0 1030097808#0 7687966 1030097810 1030097808#2 -218816683#3 773677691#0 1014074585 1014074582#0 1014074582#1 1014074587#3 1014074587#4 1014074587#5 1014074587#6 1014074587#7 1014074587#8 1014074587#1 1014074587#2"/>
    </vehicle>
    <vehicle id="flow_1550214890_WB.3" type="car" depart="136.71">
        <route edges="-141624560#0 88291250#2 88291250#3 88291120 218652276 218652292 218652304#0 218652304#1 218652287#0 88142349#2 218652256#0 218652256#1 218899450 218899454 -189512167#1 -189512167#0 189512167#0 189512167#1 599496409#0 599496409#2 218652254#0 218652254#1 100574869#1 100574869#2 100574869#3 100574869#4 100574869#5 100574869#6 238694432#0 238694432#1 238694432#2 238694432#3 238694432#4 400916783#0 400916783#1 218652290#1 1166318940 1166318930#4 1166318930#5 1166318930#1 1166318930#2 1166318930#3"/>
    </vehicle>
    <vehicle id="flow_1550214890_NB.2" type="car" depart="144.00">
        <route edges="88291250#1 88291250#2 88291250#3 -88291250#3 -88291250#2 141624560#0 141624560#1 141624560#2 141624560#3 141624560#4 896870299 896870295 896870298 218899451#1 218899451#2 218899451#3 218899451#4 189666893#0 189666893#1 -189666893#1 -189666893#0 -218899451#4 -218899451#3 -218899451#2 -218899451#1 -896870298 -218899452 218899453 599496410#1 372292804 773828749 -141624560#2 -141624560#1 -141624560#0 -88291250#1 -88291250#0 88289922#8 88289922#9 95474932#0 95474932#1 95474932#2 218899448 218899452 -896870295 -896870299 -141624560#4 -141624560#3 -773828749"/>
    </vehicle>
    <vehicle id="flow_1550214890_SB.4" type="car" depart="177.78">
        <route edges="-88291250#2 141624560#0 141624560#1 141624560#2 -773828749 773828749 141624560#3 141624560#4 896870299 896870295 896870298 218899451#1 218899451#2 218899451#3 218899451#4 -218899451#4 -218899451#3 -218899451#2 -218899451#1 -896870298 -896870295 -896870299 -141624560#4 -141624560#3 -141624560#2 -141624560#1 -141624560#0 -88291250#1 -88291250#0 88289922#8 88289922#9 1014074585 1014074582#0 1014074582#1 1014074587#3 1014074587#4 1014074587#5 1014074579#0 1014074579#1 -1030097807#3 -1030097807#2 -1030097807#1 -1030097807#0 1030097807#0 1030097807#1 1030097807#2 1030097807#3 1014074586#0 1014074586#1 1014074587#7 1014074583 218899447 1157687719#0 1157687719#1 -1157687719#1 -1157687719#0 -218899447 1014074584 1014074587#1 387841627#0 387841627#1 -1014074585 95474932#0 95474932#1 95474932#2 599496409#0 599496409#2 218652254#0 218652330#0 218652330#1 218652299#3 218652286 218652277 218678720#1 218678723#0 218678723#1 218678723#2 218678723#3 218678723#4 -218678723#4 -218678723#3 79762504#0 79762504#1 79762504#2 -79762504#2 -79762504#1 -79762504#0 -218678723#2 -218678723#1 88141354#0 88141354#1 88141354#4 88141354#5 88141354#6 -88141354#6 -88141354#5 -88141337#2 -88141337#1 -88141337#0 88141337#0 88141337#1 88141337#2 -88141354#4 -88141354#1 -88141354#0 -218678723#0 -218678720#1 218652308#1 218652302 218652281#0 218652281#1 218652294#0 100574869#1 100574869#2 100574869#3 100574869#4 100574869#5 100574869#6 238694432#0 238694432#1 238694432#2 238694432#3 238694432#4 400916783#0 400916783#1 218652290#1 1166318940 1166318930#4 1166318930#5 1166318930#1 1166318930#2 1166318930#3"/>
    </vehicle>
    <vehicle id="flow_1550214890_WB.4" type="car" depart="182.28">
        <route edges="-141624560#0 -88291250#1 -88291250#0 -88289922#7 -88289922#6 -88289922#5 88289922#5 88289922#6 88289922#7 88291250#0 88291250#1 141624560#0 141624560#1 141624560#2 141624560#3 141624560#4 896870299 896870295 -218899452 218899453 599496410#1 599496410#2 599496410#3 95474932#0 95474932#1 95474932#2 218899448 218899452 896870298 218899451#1 218899451#2 218899451#3 218899451#4 218899451#5 218899451#6 218899451#7 -218899451#7 -218899451#6 -218899451#5 -218899451#4 -218899451#3 -218899451#2 -218899451#1 -896870298 -896870295 -896870299 -141624560#4 -141624560#3 -773828749 773828749 -141624560#2 -141624560#1"/>
    </vehicle>
    <vehicle id="flow_1550214890_NB.3" type="car" depart="216.00">
        <route edges="88291250#1 141624560#0 141624560#1 141624560#2 141624560#3 141624560#4 896870299 896870295 896870298 218899451#1 218899451#2 218899451#3 218899451#4 218899451#5 218899451#6 218899451#7 -218899451#7 -218899451#6 -218899451#5 189666893#0 189666893#1 218899450 218899454 599496410#1 372292804 773828749 -141624560#2 -141624560#1 -141624560#0 -88291250#1 -88291250#0 88289922#8 88289922#9 1014074585 -1014074585 1017920809#1 1017920809#2 -218816683#1 -218816683#0 -744337053 1060322786 1060322789 36897651 301006764 301006763 301006767#0 301006767#2 301006767#3 218953332 36897716 1413592579 36910012#0 36910012#1 36911208 52464999 198384321 1300188115#0 121940603#0 121940603#1 1076362463 1076362462#1 229491269#1 82697086 99032567#0 99032567#1 99032567#2 877757463#0 877757463#1 1388009663 1388009662 1387995569 1387995570 82698442#0 82698442#1 82698442#3 232701838 1059797020 191650811 1387930320 1387930319#0 1387930319#1 1359894763#1 968949803 232701835 99032584 82698808 1073865805 133369010 1042849453 186580193 533063512 533063510 52464983 37350055 7672415 502984075 1342045788 748911032 937763922 1111216005 768711364 768711365 502989760 502989756#0 502989756#1 1111241348 37185415 1392529864 43360816 1392529861 1392529862 229624408#0 229624408#1 229624410 1409966281 1409966279 413440295 1413014885 229624402 1411132867 1411132869 1411132868 229625010#1 222239051 1416927585 1416927587 229626973 229626979 37103424 37103454 222239071 7683873#1 222239067 222239072 17151421#1 222239074 222239062 1436607384 1436607382 222239066#0 222239066#1 106298093 1044093145 1262590331 778369425#2 -778369425#2 -778369425#0 -1044093144 652353420 106298085 990290689#1 222239063 222239065 222239069#0 222239069#1 222239068 222239064 968258292 222239070 229626974 1418255615 1418255614 1418255616 1418255618 222239052#0 229625009 -1413014885 -413440295 -1413014887 -413440297 -229624410 229624405 1396137423 1396137422#0 1396137422#1 1396137420#1 229624401 229624414 229623178 1111241341 1111241340#0 1111241340#1 682677105#1 1059878843 768711367 672596440 502985243 502984422 502984421 38656071 533063511 37317150 82698882 533063513 99032614 82698828 82698813 1111618786 99032580 1388210073 232701834 1388210074 -1359894763#1 -1387930319#1 -1387930319#0 -1387930320 -191650811 191650918 1064293959 1064293960 1064293961 1064293963 232701836 1064293965 1064293964 888358407 877757470 1388009665 877757471#0 877757471#1 1300165231#0 1300165231#1 1300165238 82698186 1300165234 1300165233#0 1300165230 82695927#0 82695927#2 1076362460 229491267 1300188116 121045624#0 121045624#1 229491268#1 222969756 222969755 7686693 52464997 36897652 95471457#0 95471457#1 95471457#3 301006766 301006765#0 301006762 1060322785#0 1060322785#1 218816681 218816683#0 218816683#1 773677691#0 -88289922#9 -88289922#8 88291250#0"/>
    </vehicle>
    <vehicle id="flow_1550214890_SB.5" type="car" depart="222.22">
        <route edges="-88291250#2 141624560#0 141624560#1 141624560#2 -141624560#2 -141624560#1 -141624560#0 -88291250#1 -88291250#0 88289922#8 88289922#9 95474932#0 95474932#1 95474932#2 218899448 218899452 -896870295 -896870299 -141624560#4 -141624560#3 -773828749 773828749 141624560#3 141624560#4 896870299 896870295 896870298 218899451#1 218899451#2 218899451#3 218899451#4 218899451#5 218899451#6 218899451#7 -218899451#7 -218899451#6 -218899451#5 189666893#0 189666893#1 218899450 218899454 599496410#1 599496410#2 599496410#3 -88289922#9 -88289922#8 -88289922#7 -88289922#6 -88289922#5 88290007#3 88290007#4 -88290007#4 -88290007#3 88289922#5 88289922#6 88289922#7 88291250#0 88291250#1 88291250#2 88291250#3 -88291250#3"/>
    </vehicle>
    <vehicle id="flow_1550214890_WB.5" type="car" depart="227.85">
        <route edges="-141624560#0 -88291250#1 -88291250#0 -88289922#7 -88289922#6 -88289922#5 -88290007#2 -88290007#1 88290007#1 88290007#2 -88289922#4 88289922#4 88289922#5 88289922#6 88289922#7 88289922#8 88289922#9 1017920809#1 1017920809#2 -218816683#1 -218816683#0 -744337053 1060322786 1060322789 36897651 301006764 301006763 301006767#0 301006767#2 301006767#3 218953332 36897716 1413592579 36910012#0 36910012#1 36911208 52464999 198384321 1300188115#0 121940603#0 121940603#1 1076362463 1076362462#1 229491269#1 82697086 99032567#0 99032567#1 99032567#2 877757463#0 877757463#1 1388009663 1388009662 1387995569 1387995570 82698442#0 82698442#1 82698442#3 232701838 1059797020 191650811 1387930320 1387930319#0 1387930319#1 1359894763#1 968949803 232701835 99032584 82698808 1073865805 133369010 1042849453 186580193 533063512 533063510 52464983 37350055 7672415 502984075 1342045788 748911032 937763922 1111216005 768711364 768711365 502989760 502989756#0 502989756#1 1111241348 37185415 1392529864 43360816 1392529861 1392529862 229624408#0 229624408#1 229624410 1409966281 1409966279 413440295 1413014885 229624402 1411132867 1411132869 1411132868 229625010#1 222239051 1416927585 1416927587 229626973 229626979 37103424 37103454 222239071 7683873#1 222239067 222239072 17151421#1 222239074 222239062 1436607384 1436607382 222239066#0 222239066#1 106298093 1044093145 1262590331 778369425#2 -778369425#2 -778369425#0 -1044093144 652353420 106298085 990290689#1 222239063 222239065 222239069#0 222239069#1 222239068 222239064 968258292 222239070 229626974 1418255615 1418255614 1418255616 1418255618 222239052#0 229625009 -1413014885 -413440295 -1413014887 -413440297 -229624410 229624405 1396137423 1396137422#0 1396137422#1 1396137420#1 229624401 229624414 229623178 1111241341 1111241340#0 1111241340#1 682677105#1 1059878843 768711367 672596440 502985243 502984422 502984421 38656071 533063511 37317150 82698882 533063513 99032614 82698828 82698813 1111618786 99032580 1388210073 232701834 1388210074 -1359894763#1 -1387930319#1 -1387930319#0 -1387930320 -191650811 191650918 1064293959 1064293960 1064293961 1064293963 232701836 1064293965 1064293964 888358407 877757470 1388009665 877757471#0 877757471#1 1300165231#0 1300165231#1 1300165238 82698186 1300165234 1300165233#0 1300165230 82695927#0 82695927#2 1076362460 229491267 1300188116 121045624#0 121045624#1 229491268#1 222969756 222969755 7686693 52464997 36897652 95471457#0 95471457#1 95471457#3 301006766 301006765#0 301006762 1060322785#0 1060322785#1 218816681 218816683#0 218816683#1 773677691#0 1014074585 1014074582#0 1014074582#1 1014074587#3 1014074581#0 1014074581#1 1157687720 -1157687720 1014074580#0 1014074580#1 1014074587#5 1014074579#0 1014074579#1 -1030097807#3 -1030097807#2 -1030097807#1 -1030097807#0 1030097807#0 1030097807#1 1030097807#2 1030097807#3 1014074586#0 1014074586#1 1014074587#7 1014074587#8 1014074587#1 1014074587#2"/>
    </vehicle>
    <vehicle id="flow_1550214890_SB.6" type="car" depart="266.66">
        <route edges="-88291250#2 -88291250#1 -88291250#0 88291250#0 88291250#1 141624560#0 141624560#1 141624560#2 -773828749 773828749 -141624560#2 -141624560#1 -141624560#0 88291250#2 88291250#3 88291120 218652276 218652292 218652304#0 321934076#0 321934076#1 218652256#1 218652258 218899454 218899448 218899452 896870298 218899451#1 218899451#2 218899451#3 218899451#4 189666893#0 189666893#1 -189666893#1 -189666893#0 218899451#5 218899451#6 218899451#7 -218899451#7 -218899451#6 -218899451#5 -218899451#4 -218899451#3 -218899451#2 -218899451#1 -896870298 -218899452 218899453 599496410#1 372292804"/>
    </vehicle>
    <vehicle id="flow_1550214890_WB.6" type="car" depart="273.41">
        <route edges="-141624560#0 -88291250#1 -88291250#0 -88289922#7 -88289922#6 -88289922#5 88290007#3 88290007#4 88291004 -88291004 -88290007#4 -88290007#3 -88289922#4 -88289922#3 88289922#3 88289922#4 88289922#5 88289922#6 88289922#7 88291250#0 88291250#1 141624560#0 141624560#1 141624560#2 -141624560#2 -141624560#1"/>
    </vehicle>
    <vehicle id="flow_1550214890_NB.4" type="car" depart="288.00">
        <route edges="88291250#1 141624560#0 141624560#1 141624560#2 -141624560#2 -141624560#1 -141624560#0 -88291250#1 -88291250#0 -88289922#7 -88289922#6 -88289922#5 -88289922#4 88290203#2 88290203#3 -88290203#3 -88290203#2 88289922#4 88289922#5 88289922#6 88289922#7 88289922#8 88289922#9 95474932#0 95474932#1 95474932#2 -189512167#1 -189512167#0 -1157687719#1 -1157687719#0 -218899447 1014074584 1014074587#1 1014074587#2 1014074587#3 1014074587#4 1014074587#5 1014074579#0 1014074579#1 -1030097807#3 -1030097807#2 -1030097807#1 -1030097807#0 1030097810 1030097808#2 -218816683#3 773677691#0 1014074585 -1014074585 -88289922#9 -88289922#8 88291250#0"/>
    </vehicle>
    <vehicle id="flow_1550214890_SB.7" type="car" depart="311.11">
        <route edges="-88291250#2 -88291250#1 -88291250#0 88291250#0 88291250#1 141624560#0 141624560#1 141624560#2 141624560#3 141624560#4 896870299 896870295 -218899452 218899453 599496410#1 599496410#2 599496410#3 1014074585 -1014074585 1017920809#1 1017920809#2 218816683#3 1012604030#0 1012604030#1 1012604030#2 1030097806#0 1030097806#1 218899461 218899459 767779811 218899458#0 218899458#1 88140469 1318023438 218652316 218652295#0 -218678722#1 -218678722#0 -1157687719#5 218899455#1 218899455#3 -218899455#3 -218899455#1 1157687719#5 218678722#0 218678722#1 218678720#1 218678723#0 218678723#1 218678723#2 79762504#0 79762504#1 79762504#2 -79762504#2 -79762504#1 -79762504#0 218678723#3 218678723#4 -218678723#4 -218678723#3 -218678723#2 -218678723#1 -218678723#0 -218678720#1 218652308#1 218652302 218652281#0 400916843#0 400916843#1 100574869#2 100574869#3 100574869#4 100574869#5 100574869#6 238694432#0 238694432#1 238694432#2 238694432#3 238694432#4 400916783#0 400916783#1 218652290#1 1166318940 1166318930#4 1166318933#0 1166318933#1 1166318930#1 1166318931 1166318932 1166318930#3"/>
    </vehicle>
    <vehicle id="flow_1550214890_WB.7" type="car" depart="318.98">
        <route edges="-141624560#0 88291250#2 88291250#3 88291120 218652276 218652292 218652304#0 218652304#1 218652287#0 218652299#2 218652299#3 218652286 218652277 218652308#1 218652302 218652281#0 400916843#0 400916843#1 100574869#2 100574869#3 100574869#4 100574869#5 100574869#6 238694432#0 238694432#1 238694432#2 238694432#3 238694432#4 238694432#5 218652293#1 218652290#0 218652290#1 1166318940 1166318930#4 1166318930#5 1166318930#1 1166318931 -380521629#7 -380521629#5 -380521629#3 -380521629#2 -380521629#1 -380521629#0 380521629#0 380521629#1 380521629#2 380521629#3 380521629#5 189666897 401139262#1 -189666883#3 -189666883#2 -189666886 189666886 189666883#2 189666888#1 -189666888#1 -189666888#0 189666888#0 189666883#3 -401139262#1 -189666896 189666896 401139258 380521629#7 1166318932 1166318930#3"/>
    </vehicle>
    <vehicle id="flow_1550214890_SB.8" type="car" depart="355.55">
        <route edges="-88291250#2 -88291250#1 -88291250#0 88291250#0 88291250#1 141624560#0 141624560#1 141624560#2 141624560#3 141624560#4 896870299 896870295 -218899452 218899453 599496410#1 599496410#2 599496410#3 1017920809#1 1017920809#2 218816683#3 1012604030#0 1012604030#1 1012604030#2 1030097806#0 1030097806#1 218899461 218899459 767779811 218899458#0 -218899458#0 -767779811 -218899459 -218899461 -1030097806#1 -1030097806#0 1030097808#0 1030097808#1 1030097808#2 -218816683#3 773677691#0 95474932#0 95474932#1 95474932#2 -189512167#1 -189512167#0 -1157687719#1 -1157687719#0 -218899447 1014074584 1014074587#1 387841627#0 387841627#1 -1014074585 1014074585 1014074582#0 1014074582#1 1014074587#3 1014074587#4 1014074587#5 1014074579#0 1014074579#1 -1030097807#3 -1030097807#2 -1030097807#1 -1030097807#0 1030097810"/>
    </vehicle>
    <vehicle id="flow_1550214890_NB.5" type="car" depart="360.00">
        <route edges="88291250#1 141624560#0 141624560#1 141624560#2 141624560#3 141624560#4 896870299 896870295 -896870295 -896870299 -141624560#4 -141624560#3 -141624560#2 -141624560#1 -141624560#0 -88291250#1 -88291250#0 88289922#8 88289922#9 95474932#0 95474932#1 95474932#2 599496410#1 372292804 773828749 -773828749"/>
    </vehicle>
    <vehicle id="flow_1550214890_WB.8" type="car" depart="364.55">
        <route edges="-141624560#0 -88291250#1 -88291250#0 -88289922#7 -88289922#6 -88289922#5 88289922#5 88289922#6 88289922#7 88291250#0 88291250#1 141624560#0 141624560#1 141624560#2 141624560#3 141624560#4 896870299 896870295 -218899452 218899453 599496410#1 372292804 773828749 -141624560#2 -141624560#1"/>
    </vehicle>
    <vehicle id="flow_1550214890_SB.9" type="car" depart="400.00">